Version 4
SHEET 1 1332 680
WIRE 944 -272 192 -272
WIRE 192 -208 192 -272
WIRE 192 -208 -272 -208
WIRE 320 -208 192 -208
WIRE 480 -208 320 -208
WIRE 576 -208 480 -208
WIRE 480 -160 480 -208
WIRE 320 -128 320 -144
WIRE 944 -112 944 -272
WIRE 912 -96 800 -96
WIRE 1072 -80 976 -80
WIRE 896 -64 864 -64
WIRE 912 -64 896 -64
WIRE 864 -48 864 -64
WIRE 320 -32 320 -64
WIRE 352 -32 320 -32
WIRE 416 -32 352 -32
WIRE -272 32 -272 -208
WIRE 576 64 576 -208
WIRE 192 80 192 -208
WIRE -64 96 -64 80
WIRE 160 96 -64 96
WIRE 256 112 224 112
WIRE 448 112 448 96
WIRE 480 112 480 16
WIRE 480 112 448 112
WIRE 512 112 480 112
WIRE 160 128 0 128
WIRE 800 128 800 -96
WIRE 1072 128 1072 0
WIRE 1072 128 800 128
WIRE -272 144 -272 112
WIRE -272 144 -352 144
WIRE 0 160 0 128
WIRE -352 176 -352 144
WIRE -272 176 -272 144
WIRE -64 192 -64 96
WIRE 368 192 -64 192
WIRE 576 240 576 160
WIRE 752 240 576 240
WIRE 752 288 752 240
WIRE -272 304 -272 256
WIRE -112 304 -272 304
WIRE 32 304 -32 304
WIRE 368 304 368 192
WIRE 528 304 368 304
WIRE 752 304 752 288
WIRE 752 304 608 304
WIRE 32 320 32 304
WIRE 128 320 32 320
WIRE 240 320 128 320
WIRE 368 320 368 304
WIRE 368 320 320 320
WIRE 128 384 128 320
WIRE 128 480 128 448
WIRE 128 624 128 544
FLAG 752 384 0
FLAG 192 144 0
FLAG 0 160 0
FLAG -352 176 0
FLAG 352 48 0
FLAG 752 288 Vo
FLAG -64 80 V-
FLAG 128 320 Vd
FLAG 480 112 Vcrit
FLAG 128 624 0
FLAG 944 -48 0
FLAG 1072 -80 Vcrit
FLAG 864 -48 Vopamp
FLAG 1072 208 0
FLAG 896 16 0
FLAG 256 112 Vopamp
SYMBOL Opamps\\opamp2 192 48 R0
SYMATTR InstName U1
SYMATTR Value LM324
SYMBOL res 736 288 R0
SYMATTR InstName RL
SYMATTR Value 6
SYMBOL voltage -272 16 R0
SYMATTR InstName V1
SYMATTR Value 15
SYMBOL diode 304 -208 R0
SYMATTR InstName D1
SYMATTR Value 1N4148
SYMBOL diode 304 -128 R0
SYMATTR InstName D2
SYMATTR Value 1N4148
SYMBOL pnp 416 16 M180
SYMATTR InstName Q3
SYMATTR Value BC557B
SYMBOL res 464 -176 R0
SYMATTR InstName R7
SYMATTR Value 820
SYMBOL voltage -272 160 R0
SYMATTR InstName V2
SYMATTR Value 8.4
SYMBOL res -16 288 R90
WINDOW 0 0 56 VBottom 2
WINDOW 3 32 56 VTop 2
SYMATTR InstName R1
SYMATTR Value 100
SYMBOL res 336 304 R90
WINDOW 0 0 56 VBottom 2
WINDOW 3 32 56 VTop 2
SYMATTR InstName R2
SYMATTR Value 540
SYMBOL res 624 288 R90
WINDOW 0 0 56 VBottom 2
WINDOW 3 32 56 VTop 2
SYMATTR InstName R3
SYMATTR Value 890
SYMBOL res 336 -48 R0
SYMATTR InstName R6
SYMATTR Value 47k
SYMBOL npn 512 64 R0
SYMATTR InstName Q1
SYMATTR Value TIP122
SYMATTR Prefix X
SYMBOL zener 112 480 R0
SYMATTR InstName D3
SYMATTR Value 1N750
SYMBOL diode 144 448 R180
WINDOW 0 24 64 Left 2
WINDOW 3 24 0 Left 2
SYMATTR InstName D4
SYMATTR Value 1N4148
SYMBOL Opamps\\opamp2 944 -144 R0
SYMATTR InstName U2
SYMATTR Value LM324
SYMBOL res 1056 -96 R0
SYMATTR InstName R4
SYMATTR Value 100k
SYMBOL res 1056 112 R0
SYMATTR InstName R5
SYMATTR Value 1k
SYMBOL res 880 -80 R0
SYMATTR InstName R8
SYMATTR Value 100k
TEXT -376 440 Left 2 !.tran 1ms
TEXT -192 -288 Left 2 !.inc LM324.MOD
TEXT -96 -368 Left 2 !.lib "C:\\Program Files\\LTC\\LTspiceXVII\\lib\\''TIP122''.lib"
